Version 4
SHEET 1 880 680
WIRE 240 48 240 16
WIRE 336 64 272 64
WIRE 16 128 -16 128
WIRE 192 128 96 128
WIRE 336 144 336 64
WIRE 240 192 240 160
WIRE 336 240 336 224
FLAG 336 240 0
FLAG -16 128 VGG
IOPIN -16 128 In
FLAG 240 16 VD
IOPIN 240 16 Out
FLAG 240 192 VS
IOPIN 240 192 Out
SYMBOL res 112 112 R90
WINDOW 0 0 56 VBottom 2
WINDOW 3 32 56 VTop 2
SYMATTR InstName R1
SYMATTR Value 10
SYMBOL Wolfspeed\\nmos_TO247_3L 192 48 R0
SYMATTR InstName U1
SYMBOL voltage 336 128 R0
WINDOW 123 0 0 Left 0
WINDOW 39 0 0 Left 0
SYMATTR InstName V1
SYMATTR Value 25
